**$ENCRYPTED_LIB
**$INTERFACE
*$
* SM74101
*****************************************************************************
*  (C) Copyright 2015 Texas Instruments Incorporated. All rights reserved.
*****************************************************************************
** This model is designed as an aid for customers of Texas Instruments.
** TI and its licensors and suppliers make no warranties, either expressed
** or implied, with respect to this model, including the warranties of 
** merchantability or fitness for a particular purpose.  The model is
** provided solely on an "as is" basis.  The entire risk as to its quality
** and performance is with the customer
*****************************************************************************
*
** Released by: WEBENCH Design Center, Texas Instruments Inc.
* Part: SM74101
* Date: 11FEB2015
* Model Type: TRANSIENT
* Simulator: PSPICE 
* Simulator Version: 16.2.0.s003
* EVM Order Number: NA
* EVM Users Guide: NA
* Datasheet: SNOSBA2A-JULY-2011REVISED APRIL 2013
* Model Version: Final 1.00
*
*****************************************************************************
* Updates:
*
* Final 1.00
* Release to Web.
*****************************************************************************
.SUBCKT SM74101  IN IN_B IN_REF VCC OUT VEE
$CDNENCSTART
eee8c5c7a2bc4b01f045f303678664e7916da0bae22e8cb0bba041dd67c69ce448ea70148a9ac1670c8926c1ac5057c8ccfcd77bf87ca9dca3d8e806c5fa6eb2
48b4f3abbdab15bb1b335ff666912215cf5f3b97f86105be0bcae468e05e93db39500ba233b97c180e41a22870b7e71900f503b1f2bdc9859647853c6df0ba9f
60a188d940e604c11933952b4dcad44cf562e78474a3386073833a367042f95578da592dc359eea762f7a015a41194367ec1a47be1bd2660211c847bca4fc5a1
4b6085f201263667d664ad536e92f5b97fdfb156800cd0c692fb89c5be65dba2e914373cedd5fc85c7b1ed2cf739c4a9950704a31dc9332eab61883236de8f35
04307dd33841f8901b335ff666912215bf6f67899207c821769a77d266b8f2aaf3b046ed499597f09e26ecea7416aaeb37259b021260b2770a34972b758939a2
26ec1cae20f76c9af562e78474a3386073833a367042f95578da592dc359eea762f7a015a41194367ec1a47be1bd2660f539caf865b697eaea66e31a7c4c1370
da765c3398c8755ad2bbd7e847d638e1e776e9b255bda08c244634b3087887998e237d54982d6340cfeb474d171bd42addce0dd744d5363668d38d48029d4e93
e0bee0f3fadd6724aa3c83bc8b430528da6ffa065b3e86c835161516491003e124fdfd9bb2e10b07d5eb500eb0b0b18a361e8c5e31f7aca0c32d99c07f4de275
71dbbe87e53e082fc702d572f128fccce0036616521975ed358d35ef686d301a975a6aa3d5c3c823b935fab0a3c12e4ad2bbd7e847d638e106ca5c9d845745cf
02abcd4c7e2410e7e43adb3e40c8cefbdc97e31be082500db3a57137dbd020e3b058d544e5b6acb445b8025de3e2228ed0bd5872ad07d68efd819b6bc16c6013
7933b9d487172f1c217e07e73ac2ccbacfeb474d171bd42addce0dd744d53636e1b3c6160f3dc3158a111dadf21961401a043acf3806e07a8796c52eb6c58210
099a86bb88e9bfe31b335ff666912215c17c27e9e1e2656a9cf1c173737e5de4f6d688c7b7787773d1bce5238000071f8dcea2cdd2d3d5cc170011288085c189
3bdfb3bcf8540f57c702d572f128fcccc24ad9bd8e89829ef2b9fb2d05fef8899a87dce6f28c1cabbcc806b476f0278128cc4f2a47a1e49692a78e401fbceb2a
32c994efcc2d922e0c3e3368a1d249b5fc7dc80eb63d85b80876ef29a35c18c5d06f9f61adcc0b3775963efd3ee34e16b032015482838020efe9d280cd3011b0
05f7610a1063174c79aa126306436fddd5eb500eb0b0b18a361e8c5e31f7aca08ec66e30af96eb7b3a3f070154289af3fb8fa4da0e981cada0e2f8e3171851a4
85d5ecc9f88d32882b118aee87a17f908241a15247e312b152b551471fbe17fbf8c6ae06dc9d13fb158f7568a497d15e542715f4013b2230c606638b3412561d
2a0dde369b0e03c91acdef34d66cba5c8eb54edae4ef74e40876ef29a35c18c5d06f9f61adcc0b3775963efd3ee34e16b032015482838020efe9d280cd3011b0
070b2f013e4cfa926882451250550ffbdc97e31be082500db3a57137dbd020e3b058d544e5b6acb445b8025de3e2228ed0bd5872ad07d68efd819b6bc16c6013
35b0cb2dfc4f6a92e722e2a1ed1d3cf0712f7945e273ad0452b551471fbe17fbf8c6ae06dc9d13fb158f7568a497d15e542715f4013b2230c606638b3412561d
0abb8c42c110d7c51b335ff666912215ce1f82f4619c7a04310c75aed80381aa2a8dd6b0f6b4583e0e41a22870b7e71900b130ab1c133492c82f609e3a33e17d
75963efd3ee34e16b032015482838020644126c9831a96bdbcc806b476f0278128cc4f2a47a1e496ece33d87ee2daef8365b049241566c001a6697a50fc34e57
4b6085f2012636671cb6eb8876164db811d7a470eaa2c8d98601b006bf91fe4cbe350c1233546f214480e4246412ffd528e33a9a60c778451f9044b355874a59
2e781867abaac5ce1b335ff6669122153fb545e6f69be372769a77d266b8f2aa04d5afd2b75a07eb0e41a22870b7e71900b130ab1c133492c82f609e3a33e17d
75963efd3ee34e16b032015482838020644126c9831a96bdbcc806b476f0278128cc4f2a47a1e496ece33d87ee2daef8365b049241566c001a6697a50fc34e57
4b6085f2012636671cb6eb8876164db811d7a470eaa2c8d98601b006bf91fe4cbe350c1233546f214480e4246412ffd528e33a9a60c778451f9044b355874a59
224fe9df4b4ef4f21b335ff6669122154641a343bfb81059825e9072ec3e7acc0d5283b63a58d3d05c04d4bebb2942385bf0bff75e46a65e50794576b4f63d0d
5e907deffd12c5ffbb6ee243faaf09ac7fdfb156800cd0c692fb89c5be65dba2e914373cedd5fc85c7b1ed2cf739c4a9950704a31dc9332eab61883236de8f35
4b6085f201263667ca468b2601bf3165673f8b3d821d41d0c7541ec212b25801bcc806b476f0278128cc4f2a47a1e496ece33d87ee2daef8c755a900e84bece3
81a9746d786d11d61b335ff6669122154641a343bfb8105937563fde3423fa7667e655181f36bff5a2bec0a316d7826ce91c4d4ffb5da0156c22f8338c178f33
9783ae8e4821c68f16f765d2c415408452b551471fbe17fbf8c6ae06dc9d13fb158f7568a497d15e542715f4013b2230b66e977cf8db63a6dd613b2b00a2ef03
4b6085f201263667ca468b2601bf3165673f8b3d821d41d0c7541ec212b25801bcc806b476f0278128cc4f2a47a1e496ece33d87ee2daef8c755a900e84bece3
$CDNENCFINISH
.ENDS SM74101
*$
.SUBCKT INPUTHYST_BASIC_GEN SUPPLY OUT CN+ CN- PARAMS: VTHRESH=2.5 VHYST=0.5
***      NODE1 NODE2 CON+ CON- PARAMS:
$CDNENCSTART
eee8c5c7a2bc4b01f045f303678664e7916da0bae22e8cb0bba041dd67c69ce448ea70148a9ac1670c8926c1ac5057c8ccfcd77bf87ca9dca3d8e806c5fa6eb2
deb5edeb6c60b4623f730f3e2357fdcdda43dac8824101187bcda09abdc336334fef218a006410153e04a0763f5787a96a9ee46bc1a0a3761fc4595527c15771
7e1e5c3e55aa32abfa232f62d7d6d0680b6aeead791bbafde1b3c6ae35966abce9428feddbf2e9b8c8d9d447796d620cc2356fa0b0fe3ea9a3d8e806c5fa6eb2
$CDNENCFINISH
.ENDS INPUTHYST_BASIC_GEN
*$
.SUBCKT LS_BASIC_GEN ND+ ND- LS+ LS-
***          IN+ IN- LS+ LS-
$CDNENCSTART
eee8c5c7a2bc4b01f045f303678664e7916da0bae22e8cb0bba041dd67c69ce448ea70148a9ac1670c8926c1ac5057c8ccfcd77bf87ca9dca3d8e806c5fa6eb2
f79e6084e7102fa4067570c237f815ff5cb8d3cc8bac8250ae0697576b8b672df562e78474a3386073833a367042f95578da592dc359eea7e4e7a3909e55f471
$CDNENCFINISH
.ENDS LS_BASIC_GEN
*$
.SUBCKT UVLO_BASIC_GEN SUPPLY OUT CN+ CN- PARAMS: VTHRESH=2.5 VHYST=0.5
***      NODE1 NODE2 CON+ CON- PARAMS:
$CDNENCSTART
eee8c5c7a2bc4b01f045f303678664e7916da0bae22e8cb0bba041dd67c69ce448ea70148a9ac1670c8926c1ac5057c8ccfcd77bf87ca9dca3d8e806c5fa6eb2
deb5edeb6c60b4623f730f3e2357fdcdda43dac8824101187bcda09abdc336334fef218a006410153e04a0763f5787a96a9ee46bc1a0a3761fc4595527c15771
7e1e5c3e55aa32abfa232f62d7d6d0680b6aeead791bbafde1b3c6ae35966abce9428feddbf2e9b8c8d9d447796d620cc2356fa0b0fe3ea9a3d8e806c5fa6eb2
$CDNENCFINISH
.ENDS UVLO_BASIC_GEN
*$
.SUBCKT VSW_BASIC_GEN ND1 ND2 CN+ CN- PARAMS: RON=1 ROFF=1MEG VON=3 VOFF=2
***     NODE1 NODE2 CON+ CON- PARAMS:
$CDNENCSTART
eee8c5c7a2bc4b01f045f303678664e7916da0bae22e8cb0bba041dd67c69ce448ea70148a9ac1670c8926c1ac5057c8ccfcd77bf87ca9dca3d8e806c5fa6eb2
cca0e3dd0fa5d518c4744b53bc51cfd66132d03e5c2af8332d5aee9716049988d5eb500eb0b0b18a361e8c5e31f7aca08ec66e30af96eb7bda604fe96332c451
8d4378728875d477b469a8d685c03837b469a8d685c0383743b2b4e7c0ee5171ba992929a2f3215469757d800f95f7d95ad314ee0f3b79f1dd19a67fb131ba2c
d4840ed57ee6c8cccfeb474d171bd42addce0dd744d53636e1b3c6160f3dc3158a111dadf21961401a043acf3806e07aa857f9c27a3b72c3b7ae9d34a4327f49
$CDNENCFINISH
.ENDS VSW_BASIC_GEN
*$
.SUBCKT INVERTER_BASIC_GEN IN OUT VCC VSS PARAMS: VTHRESH=2.5
***                IN OUT VCC VSS PARAMS:
$CDNENCSTART
eee8c5c7a2bc4b01f045f303678664e7916da0bae22e8cb0bba041dd67c69ce448ea70148a9ac1670c8926c1ac5057c8ccfcd77bf87ca9dca3d8e806c5fa6eb2
75dff69073e7412e2b39496d8eed4513a6532c4041cec140bf64a2e40082daba455c38242b450fe82e96998ea014233c3b3a942eb278130ad38aff4e12555a5d
$CDNENCFINISH
.ENDS INVERTER_BASIC_GEN
*$
.SUBCKT NAND3_BASIC_GEN IN1 IN2 IN3 OUT VCC VSS PARAMS: VTHRESH=2.5
***                INPUTS OUT VCC VSS PARAMS:
$CDNENCSTART
eee8c5c7a2bc4b01f045f303678664e7916da0bae22e8cb0bba041dd67c69ce448ea70148a9ac1670c8926c1ac5057c8ccfcd77bf87ca9dca3d8e806c5fa6eb2
75dff69073e7412e2b39496d8eed451374c4505d47873f612117aa2ea926ac2068c222a704306d85ad553d168cd3e640cf5b2e009bcd094e7b036180efc4e987
4d9bfa3cc5793f386150522173fb836bde02d74f2837d08d4d5b1b73307b1303d5eb500eb0b0b18a361e8c5e31f7aca08ec66e30af96eb7bda604fe96332c451
$CDNENCFINISH
.ENDS NAND3_BASIC_GEN
*$
.SUBCKT BUF_DELAY_BASIC_GEN IN OUT VCC VSS PARAMS: VTHRESH=2.5 DELAY=10n
***                      IN OUT PARAMS:
$CDNENCSTART
eee8c5c7a2bc4b01f045f303678664e7916da0bae22e8cb0bba041dd67c69ce448ea70148a9ac1670c8926c1ac5057c8ccfcd77bf87ca9dca3d8e806c5fa6eb2
ade111961d0c49ba3f730f3e2357fdcdd5574fa4a967ae8cc835c547dd4efbd20c0dbccbeb0945fb39b86694de56328d1e9279cbf5e165f252f9a1d46b6c1fe3
ca7448a1df8a711cf562e78474a3386073833a367042f95578da592dc359eea762f7a015a41194367ec1a47be1bd2660f539caf865b697eaea66e31a7c4c1370
130ce7988ae0ab79812fc5400dbd981345ef99a66517a9417fdfb156800cd0c692fb89c5be65dba2e914373cedd5fc85c7b1ed2cf739c4a9fa4e4fec55f1494d
e7583affcebe4d8f2b39496d8eed4513a6532c4041cec140481e18960238bc54e2d3f9f1bc5670617647b4872c6feb24a0e5f172fa49d7883dd9bd7b9a4c1b4a
$CDNENCFINISH
.ENDS BUF_DELAY_BASIC_GEN
*$
