**$ENCRYPTED_LIB
**$INTERFACE
* source TPS92515
*$
*****************************************************************************
* (C) Copyright 2016 Texas Instruments Incorporated. All rights reserved.                                            
*****************************************************************************
** This model is designed as an aid for customers of Texas Instruments.                                             
** TI and its licensors and suppliers make no warranties, either expressed                                           
** or implied, with respect to this model, including the warranties of                                                    
** merchantability or fitness for a particular purpose. The model is                                                      
** provided solely on an "as is" basis. The entire risk as to its quality                                                    
** and performance is with the customer.                                                                                         
*****************************************************************************
*
* Released by: WEBENCH Design Center, Texas Instruments Inc.
* Part: TPS92515
* Date: 2/19/2016
* Model Type: Transient 
* Simulator:  PSPICE
* Simulator Version: 16.2
* EVM Order Number: TPS92515EVM
* EVM Users Guide: 
* Datasheet: 
* Model Version:  1.0
* Release to Web.
****************************************************************************
.SUBCKT TPS92515 VIN VCC CSN IADJ COFF SW PWM GND BOOT DRN DAP
$CDNENCSTART
eee8c5c7a2bc4b01f045f303678664e7916da0bae22e8cb0bba041dd67c69ce448ea70148a9ac1670c8926c1ac5057c8ccfcd77bf87ca9dcc7ac3655646adac8
532e5842038bd04739235509f59dbf5a9100736b384ed144842871fb090606b83f630c286362ed9ade5bfb59acf2a76631ecfacb334ec9b4a5da17745ad193e7
b0213db906225693af62c7e801e29edb6c43d57446ccccfdd0c648f05c69f73fef279d22e27b0f54703a26529d275f4355d79176f0d1cb540daeb5d87967a771
6d65cbfee40acf61842871fb090606b83f630c286362ed9ade5bfb59acf2a76631ecfacb334ec9b463f07620e900bc463b9a88e04b2693ea6a39d4d9fc675133
8d7bfdbb8cf7c1eb75963efd3ee34e16b0320154828380204e26894942562954f47a15dc89514f6dad0b6fb86357180409f392a0688e506c6dcbf8077f1f55a9
b0213db90622569334c73dcbf92dd8726c43d57446ccccfdb3eff0053075038bf8eab53b7d3f1961a8cb49373a19900350ff355c1b2a3e68dddcdef084dbc777
9c43c24eda4802f785ca69fda8cf338a5b60a35d00a4a0a97c402da5d403a8013a470b33888842629f85420c7a5bdbe705a5bf5987ccddbb84ba300051b473c3
cdaa385411811e27bfd81d659a09e4b32637e9cac2aa5ceafd49a287c76beca9cf3db11be05038855b60a35d00a4a0a97c402da5d403a80132b3be455333f8c3
4d85721c6849fcfc239bdbe658d21d00916f5249ee262e4a434764c58f4f3dddda9546afc91360feb0c9c6f46a17fca5405990b3b2396f642ff930754f729d74
4d85721c6849fcfceb87848776396383916f5249ee262e4a40c00a057fd7a04eda9546afc91360fe10f22c287e496e305b60a35d00a4a0a9d6644f318572d2d4
34b87e1267f97c37c1550b5599cc19ae706b807646b80371a08c6fa89d7bb8117256ee597f40d7ee26f0a36c8fd3548e49bcb2e9b7241eb49d6bedf9d0034ac8
960c537db230d401a7e1d4e347a60182706b807646b80371a08c6fa89d7bb8116154f8aa143236cee724fef0be292681842871fb090606b8ffcd95a09c64cbbc
34b87e1267f97c37b1438b5f50e183d8706b807646b803716058cb64546e078fd9fe676de89cb71ec937d4c4a354b27462d766f77596a54bc1149e604f91981f
960c537db230d401ea8e73f8557fd0d6706b807646b80371a08c6fa89d7bb8113298392d1dd510f9a017b077ec8501d04e291a0e7b079342b0306f1db7826517
b0213db9062256930dbad3e854cff8a4850692ddbe58f106c2074265d047d40e2c1823684e7eb96a149c2ecf0025d81f9f0575dba79f591bd7d2a3e6dc812510
dd1cb6090d81c6ac405990b3b2396f64cc460d555966edabdf238a524702ddc67db7c7126287d9d772d12adaff33965c39963688e7dd9f7afa58194309862176
5ca7c138b6783834f292db415c8ec9c78b192ccb7cf3e5e147949a8b1805e3f1abc614250cd336ce4b320cec563153f2352c47136b319236d49add48474a4c2a
960c537db230d401b9bbbc3a9a2efe07706b807646b80371a08c6fa89d7bb811e813419ee3c09f929c7fbf445ce2ce90405990b3b2396f642ff930754f729d74
960c537db230d401deb488f742768318706b807646b80371a08c6fa89d7bb811f55f4ca85bee9435bafa74991e2de2e94e291a0e7b079342b0306f1db7826517
b0213db906225693a36e96434e8f13cdafd359cd305952d022dd772a530e5299841cd2c8df63ef88a08c6fa89d7bb8117256ee597f40d7ee5f12b716b8a92630
998741d6e1cd705e4e291a0e7b0793426b2acff2f135304b7fbc6911e2634f4dab1162648bfecf7bc85b8781dc4ceea78f1e16c049e62a0ae46718bd0a5fe32a
b0213db9062256930dbad3e854cff8a42ea04815771d09d4c2074265d047d40e2c1823684e7eb96a3d21739d8a22d80e8a1a14453978ae36d7d2a3e6dc812510
267401f04abf37a5405990b3b2396f64cc460d555966edabdf238a524702ddc67db7c7126287d9d772d12adaff33965c39963688e7dd9f7afa58194309862176
5ca7c138b6783834b3eff0053075038b8b192ccb7cf3e5e147949a8b1805e3f1abc614250cd336ce4b320cec563153f2352c47136b319236d49add48474a4c2a
960c537db230d4011181447f2ab3bcafeb8784877639638364832870c2d787003bef8580dba7df7364e5ff3cf849636b36806a8e381bf9a08555e307e5b8bff5
b0213db90622569303ca344e4cfbeb0308e79cbf8de54de36c43d57446ccccfd4c2ab45812e4bff2a3645673e595831488034ba7c4c0256bc7c1c75b10a1d848
548e3296f01d5f7e405990b3b2396f64cc460d555966edabdf238a524702ddc67db7c7126287d9d772d12adaff33965c39963688e7dd9f7afa58194309862176
5ca7c138b67838344c2ab45812e4bff27220d99bdaa8db021efa4d69287b8e8a5911b2e9db277617a5257eba54077ab5021166ac3753b7b8838c94ce159e543a
5a0aa31c52cddba976617f42cd5d956babc614250cd336ce4b320cec563153f2352c47136b319236999f4b0aea59ce56e7a2116f86c0c02ea778d7b131ed7157
b0213db90622569303ca344e4cfbeb03a84ecbc7159c51ad6c43d57446ccccfd4c2ab45812e4bff2872f587b0a3e35dc88034ba7c4c0256bc7c1c75b10a1d848
01059b7d16240da7405990b3b2396f64cc460d555966edabdf238a524702ddc67db7c7126287d9d772d12adaff33965c39963688e7dd9f7afa58194309862176
5ca7c138b67838344c2ab45812e4bff2289a129ab81a402545645f71759214a08318958aa75d45564651b4c215cbe2b1f448aa8b445158d32d602cb3c5dbd2bb
ad0b6fb86357180409f392a0688e506cee87bc795c35fbecee015c81fc6f8152cf4999511db49803fc2aba42706a4299494586645d2cab2ecbeb0d6ed0ccae6a
b0213db906225693d2339ef977471fd1d6bda4edbfb5b58c098448b0f8b6773047bc19f5591d5bc29fd70eb6a36fc2e54fa7b47f118e60cfa64c9d102e2b7258
caa21fbf5434bbc6644126c9831a96bdabc614250cd336ce4b320cec563153f2352c47136b319236999f4b0aea59ce56e7a2116f86c0c02ea778d7b131ed7157
34b87e1267f97c370d9765e41da3334fbc27f931268b406164832870c2d787003bef8580dba7df739300a5c412db842472789270ec7225ee019e9e1f56680cc5
86549265e7d6f6796f6279d6fd3729b9405990b3b2396f64cc460d555966edabdf238a524702ddc67db7c7126287d9d772d12adaff33965c81a7750f8139278d
b0213db90622569303ca344e4cfbeb03ddb4b29aaeb56c854ca80ff7127a894ad231a9fcf431ed552eb09bf362db425f36ffd6804d0af16b6dcbf8077f1f55a9
5ca7c138b67838344c2ab45812e4bff2bbd01d7268819983ef020906a3e70d1f7bb04849f45a36728318958aa75d45564651b4c215cbe2b16229de77bbf0c9c9
f47a15dc89514f6d82d2f1439037ee2fb09e2116325bc9f120ae6ef931903bb6a930323acc31564b7d4dc4094c1209962eff7553f0d664c0084b490a16800a68
67215c4e591677d1b00eab4dd723ea6c08e79cbf8de54de38ca25a8294cea391410279fff41d7ebfbb8d7b6c20babe5f36b68a245da0c7d7d9de4b16f63cb4fb
710f626c2faf14a604066cfdce8fc7fa53e615d8ee79edbd16b273c137864f3a01a319f19b01920c491f0ca79acfe758d60835366c08e2a479d85ed4ec6c5bdb
b0213db906225693874ff9a48010df43acce120076c49f266c43d57446ccccfd96a92019cb8ba5f010655775ebc6f91b88034ba7c4c0256bc7c1c75b10a1d848
f89135a616179f9f9c6130a6298f9a49baa78b47fb353ab3abc614250cd336ce4b320cec563153f2352c47136b319236999f4b0aea59ce56a0d6e71806db1006
e8ac5e09ea758be7ee87bc795c35fbecee015c81fc6f8152cf4999511db49803fc2aba42706a4299494586645d2cab2e1b56c123690ce13d7fcf39c1875cb45e
b0213db90622569303ca344e4cfbeb03525f4881cdcee43c6c43d57446ccccfd4c2ab45812e4bff2bbd01d7268819983ef020906a3e70d1f794b18d4b2cd453c
3bef8580dba7df73668e85449edeb4ff4e291a0e7b0793426b2acff2f135304b7fbc6911e2634f4dab1162648bfecf7bc85b8781dc4ceea7ac6c0a68d356d78f
5ca7c138b67838341f4ba392b191ff8cd2bbd7e847d638e1e776e9b255bda08cbfd81d659a09e4b32637e9cac2aa5ceafd49a287c76beca97705b52003d9b61b
199ae11445469acc505d09805d1053aa51e1f615050d18df11d87360c1927170b948b3a38d6ef441f6b416f84d54d6583f73c7c5f2cee3a46dcbf8077f1f55a9
b0213db9062256936e228d26928e780e706b807646b8037140512275770ae1ddd2d34c2f2e3bb665711fc1e889e7ab21738c6740c794d0af4024a65060dc3230
e44d8ed40fcecd509a87dce6f28c1cababc614250cd336ce4b320cec563153f2352c47136b319236999f4b0aea59ce56e7a2116f86c0c02ea778d7b131ed7157
a8781af426627ebb99c9ff0e96d2a8f0ee87bc795c35fbecee015c81fc6f8152cf4999511db49803fc2aba42706a4299494586645d2cab2ecbeb0d6ed0ccae6a
b0213db906225693976633e3a662b0a86c43d57446ccccfd4e55789208b2e642ae8800d406d3382fd2bbd7e847d638e1e776e9b255bda08c8cc849879194c8ab
021166ac3753b7b8b09e2116325bc9f120ae6ef931903bb6a930323acc31564b7d4dc4094c1209962eff7553f0d664c0e1e95ad9463d64a8396c44ca140fd186
4b6085f2012636675a0aa31c52cddba976617f42cd5d956babc614250cd336ce4b320cec563153f2352c47136b319236999f4b0aea59ce56a0d6e71806db1006
c995983640779e78f6a2b547dc976ba0916f5249ee262e4aab6a1ac5442255b49cabe4a51fc68889842871fb090606b83f630c286362ed9a386dfbb9e040cb47
2f2ff66bd977a4c9c12e63f53fc8b6c7916f5249ee262e4a106f8f101ecbd39f2ad2d900479d625e076fb7c9c168bc94cc02afca93b16276d38aff4e12555a5d
047f02c305330dcc08e79cbf8de54de38ca25a8294cea39183f27344bbfb8d80141f307f0d320265478a87bc5b8e6cf9b09e2116325bc9f18734f27635885322
199ae11445469accc8003f8cbac2f90251e1f615050d18df11d87360c19271700900e1760207d8bff6b416f84d54d6583f73c7c5f2cee3a46dcbf8077f1f55a9
199ae11445469accacce120076c49f266c43d57446ccccfd3dac39665705a94969ea712437cc014008e124918d4380333f1a16f706f2f3e295a300d4d74ba109
b0213db906225693b8174e5c9737de1a706b807646b80371a726f4035a29491778998eac256588e38abae5ef64ec7a7ca942017fbd5f2b8b6944e83a4770ca4f
8dcea2cdd2d3d5cc9783ae8e4821c68fbaa78b47fb353ab3abc614250cd336ce4b320cec563153f2352c47136b319236999f4b0aea59ce56a0d6e71806db1006
bbf0a766f49a242c2637e9cac2aa5ceafd49a287c76beca9cf3db11be05038855b60a35d00a4a0a97c402da5d403a8013a470b3388884262d3a619a04aeff613
05406f8d6b4a52fffe1c3cae508d0bcc706b807646b803718abae5ef64ec7a7c31bc1e0c17f5b3d98abae5ef64ec7a7cb371c7bcf305effbfed976f0e229ebf9
b12bc01132f9f539405990b3b2396f64cc460d555966edabdf238a524702ddc67db7c7126287d9d772d12adaff33965c39963688e7dd9f7afa58194309862176
b0213db906225693ec78dd1122554747706b807646b80371249f5692d15aed5b2937334c1d99f112988f8fc903d35a46c94d037f39033431613db7821afdabb0
5ca7c138b67838346aa271f4b279e222d10ea4f199e79ee21349dd02b414ad18d2bbd7e847d638e1e776e9b255bda08cbfd81d659a09e4b30c138f656e983247
31bbfa71d5efb6fe825b843a3aa9ddcd405990b3b2396f64cc460d555966edabdf238a524702ddc67db7c7126287d9d772d12adaff33965c81a7750f8139278d
b0213db906225693c4d1becf311b44ca706b807646b80371249f5692d15aed5b63ac956f8564263a825aea6306263d8fc94d037f3903343100c0e4f0d5d9a2a0
fbcd1c7f7a4cb049005c3098ec06efbbb09e2116325bc9f120ae6ef931903bb6a930323acc31564b7d4dc4094c1209962eff7553f0d664c0084b490a16800a68
d8fecafda220f3f58dcea2cdd2d3d5cc9783ae8e4821c68f44286f328a01b5597353264ebf8b05510736b9aea252cd5465bd351ff9bed562be68af82d21e14b0
960c537db230d40142503ab11ccbe9d4706b807646b803718abae5ef64ec7a7c1a788b43beecf88d82b932f39aa5b0b35b60a35d00a4a0a9d6644f318572d2d4
960c537db230d4015933dead1fcc454b706b807646b803718abae5ef64ec7a7ce59cf067ae2deb35959b84f754dee25cee87bc795c35fbecb3048b4343e3561b
34b87e1267f97c378f2e7034844b88da706b807646b803718abae5ef64ec7a7ca65d1498b005e044c336250206c8378e3b79d1cd0e073c326dcbf8077f1f55a9
34b87e1267f97c37ec92f080273d5af2706b807646b803718abae5ef64ec7a7c6d27228da70e39ac267202aa1efb7ae37f52de007a9b82a70864033566374d49
578d0b5ea4c7d791b09e2116325bc9f120ae6ef931903bb6a930323acc31564b7d4dc4094c1209962eff7553f0d664c0e1e95ad9463d64a8396c44ca140fd186
b0213db90622569346c423a7aa331876706b807646b80371eedcb8177f4fb65890580fe53523b8ee7ddecb6d87e53f9c249f5692d15aed5b047bedb212ac2f93
d10ea4f199e79ee273020ba6d5e33e2fee87bc795c35fbecee015c81fc6f8152cf4999511db49803fc2aba42706a4299494586645d2cab2ecbeb0d6ed0ccae6a
5ca7c138b6783834d806fb622e20e5c2ac4a8fd52944614dc94d037f39033431b06ecd3cbdfa0ada7d423a23b23bfcb1fe470939fee2fa497177d481e6e3a921
8229fb25bd43b6425e907deffd12c5ff2b3adeaa6c68cb8fee87bc795c35fbecee015c81fc6f8152cf4999511db49803fc2aba42706a4299b1afbe703906363e
bbf0a766f49a242c2637e9cac2aa5ceafd49a287c76beca9cf3db11be05038855b60a35d00a4a0a97c402da5d403a8013a470b3388884262d3a619a04aeff613
67215c4e591677d1db24402b3e4f183f706b807646b80371af120da53e267c12c94d037f39033431c0679cdf11f86f2dfaeaa281e22d723e9d6bedf9d0034ac8
b0213db906225693822cdfe4adf83abe706b807646b80371249f5692d15aed5b63ac956f8564263ae5242b5d875a2ab41f5898a4004d19f35ad48003f8ea6a51
f6b416f84d54d6583f73c7c5f2cee3a4ee87bc795c35fbecee015c81fc6f8152cf4999511db49803fc2aba42706a4299494586645d2cab2ecbeb0d6ed0ccae6a
b0213db906225693c3aa1ebc1dadff64706b807646b80371249f5692d15aed5bbe941107eafe03bb40924c41d043909af71677eb40899f5638bf1427bfbf468d
93f0978bcaae26c2f60ecfe3dff4fab2ee87bc795c35fbecee015c81fc6f8152cf4999511db49803fc2aba42706a4299494586645d2cab2ecbeb0d6ed0ccae6a
cdaa385411811e27bfd81d659a09e4b32637e9cac2aa5ceafd49a287c76beca9cf3db11be05038855b60a35d00a4a0a97c402da5d403a80132b3be455333f8c3
960c537db230d4012b4fd10839f53f2d706b807646b803718abae5ef64ec7a7c31bc1e0c17f5b3d91c55013818ff2862ee87bc795c35fbecb3048b4343e3561b
b0213db9062256932616b74358e1e9e86c43d57446ccccfd6aa271f4b279e222d10ea4f199e79ee2a05ae2235476c8da7d1d2271d0fbf56737653980396cf5c4
5ca7c138b6783834c94d037f39033431a22183fe0f7a8c78387732e0698664aa4b32e6af7b9abb5a842871fb090606b83f630c286362ed9a386dfbb9e040cb47
b0213db90622569312d5ba68a825a509706b807646b80371249f5692d15aed5b63ac956f8564263ae5242b5d875a2ab4c94d037f3903343145d0b929a16871e0
6af9d5413214ba98502f880bef78c105405990b3b2396f64cc460d555966edabdf238a524702ddc67db7c7126287d9d772d12adaff33965c81a7750f8139278d
cdaa385411811e27bfd81d659a09e4b32637e9cac2aa5ceafd49a287c76beca9cf3db11be05038855b60a35d00a4a0a97c402da5d403a80132b3be455333f8c3
34b87e1267f97c37893277eeb330a1a86bb02f7c3ba3e30e5947b2bb38e52a9e7863b8c398ef06cb7b4336b6808bd2a6d15155150c36dcfe0dc8b774ee0bf2e1
1f813ff342711fd03d1dfd402b7b404c405990b3b2396f64cc460d555966edabdf238a524702ddc67db7c7126287d9d772d12adaff33965c81a7750f8139278d
21a954edf4268f15bf1ee911780421dd04066cfdce8fc7fa53e615d8ee79edbd16b273c137864f3a01a319f19b01920c491f0ca79acfe7582f0a78cbf550a3c6
34b87e1267f97c37893277eeb330a1a8a6b3a7cb9041d6dc5947b2bb38e52a9e7863b8c398ef06cb2d84e56ea68b8af633f6d43bd9dde9b0294cb53267fb222c
0e187df8db15c354bf1ee911780421dd04066cfdce8fc7fa53e615d8ee79edbd16b273c137864f3a01a319f19b01920c491f0ca79acfe7582f0a78cbf550a3c6
67215c4e591677d1893277eeb330a1a87c16d27ad9f66a53f5f581c7d2cb1545029f6b8ab35b6fcdf054bd9ef295e05902a9f61d2aba2be178dcbd27975478cd
00d3e0b087c73744405990b3b2396f64cc460d555966edabdf238a524702ddc67db7c7126287d9d772d12adaff33965c39963688e7dd9f7afa58194309862176
67215c4e591677d1893277eeb330a1a83016a137105ca47cf5f581c7d2cb1545029f6b8ab35b6fcdf054bd9ef295e059365a7dbbd7d696b078dcbd27975478cd
00d3e0b087c73744405990b3b2396f64cc460d555966edabdf238a524702ddc67db7c7126287d9d772d12adaff33965c39963688e7dd9f7afa58194309862176
b0213db906225693893277eeb330a1a85e57969676231e6cc2074265d047d40e7d9b2ce9a48ed4968277c46ea49e175a97aebe19d7d04cb9c19ebafbc69b7678
b566a5444e4dbb8af58718750b7a94f836806a8e381bf9a0abc614250cd336ce4b320cec563153f2352c47136b319236999f4b0aea59ce56a0d6e71806db1006
cdaa385411811e273f73c7c5f2cee3a4ee87bc795c35fbecee015c81fc6f8152cf4999511db49803fc2aba42706a4299494586645d2cab2ecbeb0d6ed0ccae6a
b0213db906225693893277eeb330a1a89356391011da6580c2074265d047d40e0f27ff6494566c77f494ea4eebdb42f914b5eaa558732706a026443c307f2847
8ce9a9b04e2dd17438380075bb5248d84e291a0e7b0793426b2acff2f135304b7fbc6911e2634f4dab1162648bfecf7bc85b8781dc4ceea7ac6c0a68d356d78f
cdaa385411811e27bfd81d659a09e4b32637e9cac2aa5cea2cecad1ebf804c4bf467148f06ca8e4304066cfdce8fc7fa53e615d8ee79edbdc663071361569d5d
b0213db906225693893277eeb330a1a85281b06a333d3503c2074265d047d40e0f27ff6494566c77f494ea4eebdb42f914b5eaa558732706f40437b07227e6cd
5ca7c138b678383496a92019cb8ba5f0eea39fc533ac57931efa4d69287b8e8a5911b2e9db277617a5257eba54077ab5021166ac3753b7b8838c94ce159e543a
5a0aa31c52cddba976617f42cd5d956babc614250cd336ce4b320cec563153f2352c47136b319236999f4b0aea59ce56e7a2116f86c0c02ea778d7b131ed7157
b0213db906225693893277eeb330a1a8329884b200a6b770c2074265d047d40ee44d8ed40fcecd508f98d51486b92dd3893277eeb330a1a8a41f149c53e289c2
eec9a153dcaddf911933952b4dcad44cb09e2116325bc9f120ae6ef931903bb6a930323acc31564b7d4dc4094c1209962eff7553f0d664c0084b490a16800a68
b0213db906225693893277eeb330a1a84e00fbf47b1f511ac2074265d047d40e7d9b2ce9a48ed4968277c46ea49e175a11d87ba68fb8f1c7c19ebafbc69b7678
b566a5444e4dbb8a8d1f6fa7580b9ea9405990b3b2396f64cc460d555966edabdf238a524702ddc67db7c7126287d9d772d12adaff33965c81a7750f8139278d
5ca7c138b67838348a50a768cedba5490e0966b17c06f5448c4f172d8e7a604d75963efd3ee34e16b0320154828380204e26894942562954756dacbeca4bc899
fd49a287c76beca9cf3db11be05038855b60a35d00a4a0a97c402da5d403a8013a470b33888842629f85420c7a5bdbe705a5bf5987ccddbb84ba300051b473c3
b0213db906225693893277eeb330a1a8be7f2d8e863baaf9c2074265d047d40edf88c7669fcb83eb50ff355c1b2a3e681268e0acdd8eb5e640b2f57cbe0cf718
5ca7c138b67838348a50a768cedba549bb0f232b099f6978b4486cd4587b8e1cafde4f9ca70f7ceb85b8bc11b455903d893277eeb330a1a805fd917ce46120b8
57c99646b81fa6ab75963efd3ee34e16b09e2116325bc9f120ae6ef931903bb6a930323acc31564b7d4dc4094c1209962eff7553f0d664c0084b490a16800a68
cdaa385411811e27bfd81d659a09e4b32637e9cac2aa5ceafd49a287c76beca9cf3db11be05038855b60a35d00a4a0a97c402da5d403a80132b3be455333f8c3
34b87e1267f97c37893277eeb330a1a8c650fae164e22ba0f5f581c7d2cb1545029f6b8ab35b6fcd5985517c48de1675c4b6ee13136b11e862d766f77596a54b
b0213db906225693893277eeb330a1a8fc0a8843d0355ed5c2074265d047d40e766fcec599d7e2344bf395490bb413927d0f27420ef5b245794b18d4b2cd453c
893277eeb330a1a8d92601dfc8fae71cb09e2116325bc9f120ae6ef931903bb6a930323acc31564b7d4dc4094c1209962eff7553f0d664c0084b490a16800a68
7c4f4dbbec2cae088dcea2cdd2d3d5cc9783ae8e4821c68f44286f328a01b5597353264ebf8b05510736b9aea252cd5465bd351ff9bed562be68af82d21e14b0
b0213db906225693893277eeb330a1a8b727911d7e733d4d5947b2bb38e52a9e7863b8c398ef06cb7b4336b6808bd2a6d15155150c36dcfe0da218fae7d8fb2f
cd330fa52ba41ab6b09e2116325bc9f120ae6ef931903bb6a930323acc31564b7d4dc4094c1209962eff7553f0d664c0e1e95ad9463d64a8396c44ca140fd186
5ca7c138b67838348a50a768cedba549a3e2d32ad895329cdf551062c0993b5d75963efd3ee34e16b0320154828380204e26894942562954756dacbeca4bc899
fd49a287c76beca9cf3db11be05038855b60a35d00a4a0a97c402da5d403a8013a470b33888842629f85420c7a5bdbe705a5bf5987ccddbb84ba300051b473c3
b0213db906225693893277eeb330a1a882d2442fe366db26c2074265d047d40e7d9b2ce9a48ed4968277c46ea49e175a68df88413bd8268ec19ebafbc69b7678
b566a5444e4dbb8ae75d548560aa2c73405990b3b2396f64cc460d555966edabdf238a524702ddc67db7c7126287d9d772d12adaff33965c81a7750f8139278d
5ca7c138b678383414094072df06ce9d132063b713042378eda46796543d5a4878091e31e9f4bf963de3d0338a1f0fb78318958aa75d4556dd0a70f33e2447ea
4e2689494256295447158635b18b6659405990b3b2396f64cc460d555966edabdf238a524702ddc67db7c7126287d9d772d12adaff33965c81a7750f8139278d
4b6085f2012636676f3085441f0c7a2a4e291a0e7b0793426b2acff2f135304b7fbc6911e2634f4dab1162648bfecf7bc85b8781dc4ceea7ac6c0a68d356d78f
b0213db906225693893277eeb330a1a8a668ac57910b9376c2074265d047d40e7d9b2ce9a48ed496b374e4f6589dc603c1aa8243fc119c8ec19ebafbc69b7678
928bfb7523ac807ae45b38d1373aea73405990b3b2396f64cc460d555966edabdf238a524702ddc67db7c7126287d9d772d12adaff33965c81a7750f8139278d
5ca7c138b67838348a50a768cedba549bb0f232b099f6978b4486cd4587b8e1cafde4f9ca70f7ceb7ce9af1d8653c71a60a188d940e604c1ecf22f43cd602b91
44286f328a01b55967d2eff95da562745b60a35d00a4a0a97c402da5d403a8013a470b33888842629f85420c7a5bdbe705a5bf5987ccddbb84ba300051b473c3
4b6085f2012636675a0aa31c52cddba976617f42cd5d956babc614250cd336ce4b320cec563153f2352c47136b319236999f4b0aea59ce56a0d6e71806db1006
2f2ff66bd977a4c96af56f2fcb564d816c43d57446ccccfd6eb55923f2cc0511fb25b5651a7ec692ef1d7357d3c4e2f3644126c9831a96bd8555e307e5b8bff5
f200057ebe83208c768c640ab61b1dc70f27ff6494566c77bcfbcd4cd448f2c825ba2586c6074b8667fb622181e8c914cec8fcdc013772b6c7ac3655646adac8
b0213db906225693752f7113017609336c43d57446ccccfd3dac39665705a94969ea712437cc0140106f8f101ecbd39f2ad2d900479d625eb3cae295359a30fb
1cc6f6773fc1dbce75963efd3ee34e16b09e2116325bc9f120ae6ef931903bb6a930323acc31564b7d4dc4094c1209962eff7553f0d664c0084b490a16800a68
cdaa385411811e27bfd81d659a09e4b32637e9cac2aa5ceafd49a287c76beca9cf3db11be05038855b60a35d00a4a0a97c402da5d403a80132b3be455333f8c3
b0213db906225693577f745e73cdb86d6c43d57446ccccfdfd58f7418118014d10ea573d215a25c4d82869ca96f274c85b0661e4967deef315498280a022d4f3
8dcea2cdd2d3d5cc9783ae8e4821c68fbaa78b47fb353ab3abc614250cd336ce4b320cec563153f2352c47136b319236999f4b0aea59ce56a0d6e71806db1006
bbf0a766f49a242c2637e9cac2aa5ceafd49a287c76beca9cf3db11be05038855b60a35d00a4a0a97c402da5d403a8013a470b3388884262d3a619a04aeff613
b0213db9062256932e1aca9cb907956a706b807646b80371db498480885e9c90ba7969a28a366822d591439da908204f5c5137092ab7e0fb6d39643ccb17aa96
82a913d2456a12801e0986c17d72c69f9971e708c89445e6abc614250cd336ce4b320cec563153f2352c47136b319236999f4b0aea59ce56a0d6e71806db1006
a8781af426627ebb8dcea2cdd2d3d5cc9783ae8e4821c68f44286f328a01b5597353264ebf8b05513267e49cc155bb17aad0cae5ebf3019a8555e307e5b8bff5
b0213db906225693850589dd2c96105e706b807646b80371db498480885e9c90ba7969a28a366822d591439da908204f95bd67f950609ea4fd4a4ce5e3a3d0d4
b01b221e5dbad353748a93fe4ae2bf29842871fb090606b83f630c286362ed9ade5bfb59acf2a76631ecfacb334ec9b463f07620e900bc46672c8748651f51e5
5ca7c138b6783834030aa5b3a49b3c481c374619de6bb50e22c1466fc949acb971e720d73d42e0a374cd9087d4e1395c5b60a35d00a4a0a9d6644f318572d2d4
34b87e1267f97c3764f985b90db13bfa706b807646b80371aa94125626c3a5330f8ba8a4057e293f1c30d91a91fc895f49bcb2e9b7241eb49d6bedf9d0034ac8
34b87e1267f97c3777e904a4f2e7bbfd706b807646b80371403fc55278a736ac0f8ba8a4057e293f88085326b45ea88349bcb2e9b7241eb49d6bedf9d0034ac8
220c3c7dc3f6f2093241234e753a0bf6cd9f9b0fe66d8ad164832870c2d787005c5137092ab7e0fbf3e88fc88aaf75c9fbf52cf62621ada0902f8c0393ad396e
e90156b5b738af7870ee7f6300f342fe644126c9831a96bdabc614250cd336ce4b320cec563153f2352c47136b319236999f4b0aea59ce56a0d6e71806db1006
02673b7763e121d25b60a35d00a4a0a97c402da5d403a8013a470b33888842629f85420c7a5bdbe705a5bf5987ccddbb7267c56314650892d8f27a87692783ba
34b87e1267f97c372ef6f6b8443d631e706b807646b803716058cb64546e078f5c5137092ab7e0fb1d9849f96824eda6478a87bc5b8e6cf9d38aff4e12555a5d
220c3c7dc3f6f209e4d07032602471aa706b807646b80371db498480885e9c90f823131cd01e8a50af37286787e80a180f8ba8a4057e293f0cd4364a69619b50
db498480885e9c9080ce781556bb9f1236a8238a25b72279abc614250cd336ce4b320cec563153f2352c47136b319236999f4b0aea59ce56a0d6e71806db1006
467e87b415914662e847dda77d5f9443abc614250cd336ce4b320cec563153f2352c47136b319236999f4b0aea59ce56e7a2116f86c0c02ea778d7b131ed7157
f200057ebe83208c862497acb5eaad5e83f27344bbfb8d8073ac0e0bd3e48f956ec65e91f774651cbb540557cbf425bd83f27344bbfb8d80472ba53f8953ec44
b60e0c29cca77fa64c78c545f103a404842871fb090606b83f630c286362ed9ade5bfb59acf2a76631ecfacb334ec9b463f07620e900bc46672c8748651f51e5
f200057ebe83208c35f33d48e6f98cf6e44d8ed40fcecd50a20715c3e61f89e347400517d304a3539986210216499665fc0363b8fd13b39e7bd58bbaf8144d00
a1eaf14b7ba471761deca0742c49d8205b60a35d00a4a0a97c402da5d403a8013a470b33888842629f85420c7a5bdbe705a5bf5987ccddbb84ba300051b473c3
c995983640779e78dca29065f7b4a6846c43d57446ccccfd9c358470f6af6df45718b1ee12d9aa33842871fb090606b83f630c286362ed9a386dfbb9e040cb47
$CDNENCFINISH
.ENDS TPS92515
*$
.subckt Toff_UTOP_U_Toff1_S1 1 2 3 4  
$CDNENCSTART
eee8c5c7a2bc4b01f045f303678664e7916da0bae22e8cb0bba041dd67c69ce448ea70148a9ac1670c8926c1ac5057c8ccfcd77bf87ca9dcc7ac3655646adac8
1bb3326d93595303d2339ef977471fd1cd9f9b0fe66d8ad1ffb40d9244a39c7b476ba1f19c7c0eb44c2ab45812e4bff25271e93a2769221dc7ac3655646adac8
c16f5b19ed96e39c4c2ab45812e4bff2afad267ec3d074260fc456520f02d491ed53b4ce5c20ee27abc614250cd336ce4b320cec563153f27127c3589886e6ca
1e7e75f62a07f7b1bbcb463bf6330e44d231a9fcf431ed5522c98d97ea98b18fb469a8d685c038370cf9f34ef7439c7d2b1f2f2ec61e072ced6a434c5ce3f38d
624026ab62cb6810aad1f5fe01353487405990b3b2396f64cc460d555966edabdf238a524702ddc67db7c7126287d9d772d12adaff33965c81a7750f8139278d
$CDNENCFINISH
.ends Toff_UTOP_U_Toff1_S1
*$
.subckt PWM_UTOP_U_PWM_S2 1 2 3 4  
$CDNENCSTART
eee8c5c7a2bc4b01f045f303678664e7916da0bae22e8cb0bba041dd67c69ce448ea70148a9ac1670c8926c1ac5057c8ccfcd77bf87ca9dcc7ac3655646adac8
1bb3326d935953032616b74358e1e9e8706b807646b803714f11897f11707f10387732e0698664aae812bac87e5afc044e291a0e7b079342b0306f1db7826517
c16f5b19ed96e39c1cd40b58d94880e6706b807646b80371074b3250af40d54e842871fb090606b83f630c286362ed9ade5bfb59acf2a766518e18643b28acb1
1e7e75f62a07f7b1bbcb463bf6330e448abae5ef64ec7a7c4cc3bbc9e4b21a598da9d0385456e17b051a99806d32723d8988ed540eb643839adc56f03a8d243c
8797abf02fb63529a857e0c50156fae1ee87bc795c35fbecee015c81fc6f8152cf4999511db49803fc2aba42706a4299494586645d2cab2ecbeb0d6ed0ccae6a
$CDNENCFINISH
.ends PWM_UTOP_U_PWM_S2
*$
.subckt TPS92515_UTOP_S6 1 2 3 4  
$CDNENCSTART
eee8c5c7a2bc4b01f045f303678664e7916da0bae22e8cb0bba041dd67c69ce448ea70148a9ac1670c8926c1ac5057c8ccfcd77bf87ca9dcc7ac3655646adac8
d07e790e36329e05c12e63f53fc8b6c7ffb40d9244a39c7b476ba1f19c7c0eb47ac7164c6d09e59004066cfdce8fc7fa53e615d8ee79edbdc663071361569d5d
c16f5b19ed96e39c3284dbb5b24063b50fc456520f02d491ed53b4ce5c20ee27abc614250cd336ce4b320cec563153f2352c47136b319236d49add48474a4c2a
1e7e75f62a07f7b1bbcb463bf6330e44819f5cc500e2e6f0b469a8d685c038373e74721d4357bd9190fb9d5d9fb32327e194f589bfe971d403d6b66faff88b74
a070f04ef472162cb09e2116325bc9f120ae6ef931903bb6a930323acc31564b7d4dc4094c1209962eff7553f0d664c0e1e95ad9463d64a8396c44ca140fd186
$CDNENCFINISH
.ends TPS92515_UTOP_S6
*$
.subckt TPS92515_UTOP_S7 1 2 3 4  
$CDNENCSTART
eee8c5c7a2bc4b01f045f303678664e7916da0bae22e8cb0bba041dd67c69ce448ea70148a9ac1670c8926c1ac5057c8ccfcd77bf87ca9dcc7ac3655646adac8
d07e790e36329e05bf230db17611f82fffb40d9244a39c7b476ba1f19c7c0eb433cad0128b74623f04066cfdce8fc7fa53e615d8ee79edbdc663071361569d5d
c16f5b19ed96e39cfae8f259c6c39e8a0fc456520f02d491ed53b4ce5c20ee27abc614250cd336ce4b320cec563153f2352c47136b319236d49add48474a4c2a
1e7e75f62a07f7b1bbcb463bf6330e440514f348602e9bd9b469a8d685c038370cf9f34ef7439c7d2b1f2f2ec61e072c8f182a59499ce6403f345ef20ce78c82
bd7e81561ebd973c5b60a35d00a4a0a97c402da5d403a8013a470b33888842629f85420c7a5bdbe705a5bf5987ccddbb7267c56314650892d8f27a87692783ba
$CDNENCFINISH
.ends TPS92515_UTOP_S7
*$
.subckt TPS92515_UTOP_S8 1 2 3 4  
$CDNENCSTART
eee8c5c7a2bc4b01f045f303678664e7916da0bae22e8cb0bba041dd67c69ce448ea70148a9ac1670c8926c1ac5057c8ccfcd77bf87ca9dcc7ac3655646adac8
d07e790e36329e05b585b96681e0ca9bffb40d9244a39c7b476ba1f19c7c0eb41a0e34454096b32b04066cfdce8fc7fa53e615d8ee79edbdc663071361569d5d
c16f5b19ed96e39cb7f575403cc794320fc456520f02d491ed53b4ce5c20ee27abc614250cd336ce4b320cec563153f2352c47136b319236d49add48474a4c2a
1e7e75f62a07f7b1bbcb463bf6330e44b73ef77b552609a2b469a8d685c038370cf9f34ef7439c7d2b1f2f2ec61e072c8f182a59499ce6403f345ef20ce78c82
bd7e81561ebd973c5b60a35d00a4a0a97c402da5d403a8013a470b33888842629f85420c7a5bdbe705a5bf5987ccddbb7267c56314650892d8f27a87692783ba
$CDNENCFINISH
.ends TPS92515_UTOP_S8
*$
***********************************************************************************************************************************
***********************************************************************************************************************************
** Wrapper definitions for AA legacy support **
.subckt d_d1 1 2
$CDNENCSTART
eee8c5c7a2bc4b01f045f303678664e7916da0bae22e8cb0bba041dd67c69ce448ea70148a9ac1670c8926c1ac5057c8ccfcd77bf87ca9dcc7ac3655646adac8
1580a2664af5c9b71dffb53947c4a05004066cfdce8fc7fa53e615d8ee79edbd16b273c137864f3a01a319f19b01920c491f0ca79acfe7582f0a78cbf550a3c6
0697746efb67a3a341e6e617f9adb744405990b3b2396f64cc460d555966edabdf238a524702ddc67db7c7126287d9d772d12adaff33965c81a7750f8139278d
f7a854a98d732f8b65b706867a9136e6ee87bc795c35fbecee015c81fc6f8152cf4999511db49803fc2aba42706a4299494586645d2cab2ecbeb0d6ed0ccae6a
39c84b0c9f72e0078e024cbd033ee0afee87bc795c35fbecee015c81fc6f8152cf4999511db49803fc2aba42706a4299494586645d2cab2ecbeb0d6ed0ccae6a
0660a0f5c4a1d536aad0cae5ebf3019aabc614250cd336ce4b320cec563153f2352c47136b319236999f4b0aea59ce56e7a2116f86c0c02ea778d7b131ed7157
eff9bf1926aa5ce1842871fb090606b83f630c286362ed9ade5bfb59acf2a76631ecfacb334ec9b463f07620e900bc463b9a88e04b2693ea6a39d4d9fc675133
$CDNENCFINISH
.ends d_d1
*$


.model d_d1 d 
$CDNENCSTART
eee8c5c7a2bc4b01f045f303678664e7916da0bae22e8cb0bba041dd67c69ce448ea70148a9ac1670c8926c1ac5057c8ccfcd77bf87ca9dcc7ac3655646adac8
f7a854a98d732f8b65b706867a9136e6ee87bc795c35fbecee015c81fc6f8152cf4999511db49803fc2aba42706a4299494586645d2cab2ecbeb0d6ed0ccae6a
39c84b0c9f72e0078e024cbd033ee0afee87bc795c35fbecee015c81fc6f8152cf4999511db49803fc2aba42706a4299494586645d2cab2ecbeb0d6ed0ccae6a
0660a0f5c4a1d536aad0cae5ebf3019aabc614250cd336ce4b320cec563153f2352c47136b319236999f4b0aea59ce56e7a2116f86c0c02ea778d7b131ed7157
eff9bf1926aa5ce1842871fb090606b83f630c286362ed9ade5bfb59acf2a76631ecfacb334ec9b463f07620e900bc463b9a88e04b2693ea6a39d4d9fc675133

$CDNENCFINISH

*$
.subckt nmos nd ng ns nb params: w1=1u l1=1u
$CDNENCSTART
eee8c5c7a2bc4b01f045f303678664e7916da0bae22e8cb0bba041dd67c69ce448ea70148a9ac1670c8926c1ac5057c8ccfcd77bf87ca9dcc7ac3655646adac8
a8916898553f0f70cd33aa6ae931fa7cb27df58d0f769f920593491027a00071842871fb090606b83f630c286362ed9ade5bfb59acf2a766518e18643b28acb1
c368b389f3d9b3b429ea7804aad2d8684e291a0e7b0793426b2acff2f135304b7fbc6911e2634f4dab1162648bfecf7bc85b8781dc4ceea7ac6c0a68d356d78f
15d140099e31a5559aacae35e521587aabc614250cd336ce4b320cec563153f2352c47136b319236999f4b0aea59ce56e7a2116f86c0c02ea778d7b131ed7157
5fc06b9a701c7fbd010c477056afd752b09e2116325bc9f120ae6ef931903bb6a930323acc31564b7d4dc4094c1209962eff7553f0d664c0084b490a16800a68
$CDNENCFINISH
.ends nmos
*$
.SUBCKT COMP_BASIC_GEN INP INM Y PARAMS: VDD=1 VSS=0 VTHRESH=0.5	
$CDNENCSTART